    36
 Generated by Multiwfn
C      -3.35010000      0.67320000      0.12910000
C      -2.11580000      1.38780000      0.20820000
C      -0.90350000      0.72260000     -0.00610000
C      -0.90580000     -0.72010000     -0.00700000
C      -2.11710000     -1.38140000     -0.23870000
C      -3.35000000     -0.66240000     -0.17650000
C      -2.13440000      2.79800000      0.49420000
C      -0.98260000      3.52700000      0.46800000
C       0.24030000      2.91620000      0.01900000
C       0.26250000      1.54320000     -0.28640000
C       1.39980000      3.71420000     -0.16960000
C       2.53200000      3.17420000     -0.74420000
C       2.51340000      1.83640000     -1.19340000
C       1.39510000      1.05120000     -0.99190000
C       0.25360000     -1.54400000      0.29020000
C       0.23210000     -2.91700000     -0.01550000
C      -0.98610000     -3.52420000     -0.48180000
C      -2.13530000     -2.79170000     -0.52460000
C       1.37760000     -1.05530000      1.01150000
C       2.49100000     -1.84350000      1.22820000
C       2.51170000     -3.18180000      0.78040000
C       1.38640000     -3.71850000      0.18960000
H      -4.30060000      1.19510000      0.31350000
H      -4.29960000     -1.18130000     -0.37400000
H      -3.08680000      3.29230000      0.73620000
H      -0.98820000      4.57900000      0.78920000
H       1.39520000      4.76850000      0.14410000
H       3.44260000      3.78190000     -0.85140000
H       3.39230000      1.41770000     -1.70560000
H       1.38020000      0.02400000     -1.38530000
H      -0.99030000     -4.57630000     -0.80280000
H      -3.08550000     -3.28350000     -0.78010000
H       1.35990000     -0.02830000      1.40500000
H       3.36430000     -1.42690000      1.75140000
H       3.41850000     -3.79260000      0.90160000
H       1.38320000     -4.77280000     -0.12430000
