    10
 Generated by Multiwfn
C      -2.61720000     -3.69370000     -0.13960000
C      -1.33110000     -3.94150000      0.13370000
C      -0.24380000     -3.03070000     -0.12940000
C      -0.26930000     -1.71670000      0.12390000
H       0.66840000     -3.48020000     -0.51700000
H      -1.14270000     -1.22720000      0.54280000
H       0.59950000     -1.09890000     -0.07950000
H      -2.94340000     -2.75530000     -0.57640000
H      -3.37820000     -4.43990000      0.06510000
H      -1.05030000     -4.91170000      0.53920000
