    16
 Generated by Multiwfn
O       0.24380000      2.61010000      0.00000000
O      -0.24380000     -2.61010000      0.00000000
C       0.35100000     -0.67350000     -1.28490000
C      -0.35100000      0.67350000     -1.28490000
C       0.35100000     -0.67350000      1.28490000
C      -0.35100000      0.67350000      1.28490000
C      -0.08060000      1.42370000      0.00000000
C       0.08060000     -1.42370000      0.00000000
H       1.43600000     -0.54730000     -1.37180000
H       0.00920000     -1.27460000     -2.13380000
H      -0.00920000      1.27460000     -2.13380000
H      -1.43600000      0.54730000     -1.37180000
H       1.43600000     -0.54730000      1.37180000
H       0.00920000     -1.27460000      2.13380000
H      -1.43600000      0.54730000      1.37180000
H      -0.00920000      1.27460000      2.13380000
