    16
 Generated by Multiwfn
C      -4.82370000     -1.39500000      0.00030000
C      -3.45090000     -1.39500000      0.00030000
C      -2.72900000     -0.16990000      0.00030000
C      -3.44680000      1.05400000      0.00060000
C      -5.53980000     -0.17330000      0.00050000
H      -5.38440000     -2.34130000      0.00020000
H      -2.88610000     -2.33930000      0.00000000
C      -2.72410000      2.27870000      0.00070000
H      -6.63940000     -0.19970000      0.00060000
C      -1.35120000      2.27880000      0.00050000
C      -0.63520000      1.05690000      0.00000000
H      -3.28850000      3.22330000      0.00100000
H      -0.79050000      3.22510000      0.00030000
H       0.46440000      1.08340000     -0.00020000
N      -1.30720000     -0.14030000      0.00000000
N      -4.86830000      1.02460000      0.00080000
