    14
 Generated by Multiwfn
O       1.94240000     -1.31910000      0.00000000
O      -1.94240000      1.31910000      0.00000000
N       0.53160000      0.41230000      0.00000000
N       2.86560000      0.70440000      0.00000000
N      -0.53160000     -0.41230000      0.00000000
N      -2.86560000     -0.70440000      0.00000000
C       1.78680000     -0.12360000      0.00000000
C      -1.78680000      0.12360000      0.00000000
H       0.38730000      1.41240000      0.00000000
H       3.76930000      0.25490000      0.00000000
H       2.72830000      1.70510000      0.00000000
H      -0.38730000     -1.41240000      0.00000000
H      -3.76930000     -0.25490000      0.00000000
H      -2.72830000     -1.70510000      0.00000000
