    24
 Generated by Multiwfn
C      -0.30460000     -0.67300000     -0.55100000
C      -1.25610000     -1.72470000     -0.53840000
C      -2.63380000     -1.48560000     -0.54630000
C      -3.10930000     -0.18360000     -0.56730000
C      -2.20680000      0.87630000     -0.58020000
C      -0.81980000      0.64880000     -0.57240000
H      -2.59770000      1.89160000     -0.59670000
H      -3.32930000     -2.32070000     -0.53600000
H      -4.17840000      0.00940000     -0.57350000
H      -0.93720000     -2.76280000     -0.52180000
C       1.12290000     -0.87100000     -0.54350000
C       0.05480000      1.73830000     -0.58590000
C       1.43360000      1.54710000     -0.57860000
C       1.97860000      0.26070000     -0.55770000
C       1.75220000     -2.14190000     -0.52250000
C       3.37510000      0.10220000     -0.55090000
C       3.14300000     -2.28670000     -0.51590000
C       3.95490000     -1.16340000     -0.53010000
H      -0.32960000      2.75590000     -0.60240000
H       2.08060000      2.42170000     -0.58970000
H       4.02760000      0.97290000     -0.56190000
H       1.16270000     -3.05400000     -0.51080000
H       3.58470000     -3.27950000     -0.49970000
H       5.03620000     -1.26850000     -0.52510000
