     8
 Generated by Multiwfn
C      -0.44650000     -0.19600000     -0.12670000
H      -0.06070000     -0.57950000     -1.04810000
H       0.17470000     -0.51960000      0.68230000
H      -1.44240000     -0.55840000      0.02140000
C      -0.46250000      1.34300000     -0.17780000
Cl     -1.93410000      1.93990000      0.58080000
Cl      0.93790000      1.97320000      0.68190000
Cl     -0.40970000      1.87480000     -1.85470000
