    24
 Generated by Multiwfn
N       0.00000000      0.00000000      1.64450000
C       0.00000000      0.00000000     -0.96570000
C       1.24340000     -0.71790000     -0.40040000
C      -1.24340000     -0.71790000     -0.40040000
C       0.00000000      1.43570000     -0.40040000
C       1.20150000     -0.69370000      1.13600000
C      -1.20150000     -0.69370000      1.13600000
C       0.00000000      1.38740000      1.13600000
C       0.00000000      0.00000000     -2.49150000
H       2.15740000     -0.25180000     -0.75400000
H       1.29680000     -1.74250000     -0.75400000
H      -1.29680000     -1.74250000     -0.75400000
H      -2.15740000     -0.25180000     -0.75400000
H      -0.86060000      1.99430000     -0.75400000
H       0.86060000      1.99430000     -0.75400000
H       1.21740000     -1.72810000      1.52850000
H       2.10530000     -0.19020000      1.52850000
H      -2.10530000     -0.19020000      1.52850000
H      -1.21740000     -1.72810000      1.52850000
H       0.88790000      1.91830000      1.52850000
H      -0.88790000      1.91830000      1.52850000
H       0.88490000      0.51090000     -2.88620000
H       0.00000000     -1.02180000     -2.88620000
H      -0.88490000      0.51090000     -2.88620000
