    19
 Generated by Multiwfn
C      -0.74750000     -1.19300000      1.80240000
C       0.74750000     -1.19300000      1.80240000
C       1.40690000     -0.05090000      1.80240000
C       0.65940000      1.24390000      1.80240000
C      -0.65940000      1.24390000      1.80240000
C      -1.40690000     -0.05090000      1.80240000
C      -1.36440000     -0.78770000     -1.24690000
C       1.36440000     -0.78770000     -1.24690000
C       0.00000000      1.57550000     -1.24690000
O      -2.37690000     -1.37230000     -2.01890000
O       2.37690000     -1.37230000     -2.01890000
O       0.00000000      2.74460000     -2.01890000
Mo      0.00000000      0.00000000     -0.11840000
H      -1.37000000     -2.08740000      1.79800000
H       1.37000000     -2.08740000      1.79800000
H       2.49270000     -0.14280000      1.79800000
H       1.12270000      2.23010000      1.79800000
H      -1.12270000      2.23010000      1.79800000
H      -2.49270000     -0.14280000      1.79800000
