    21
 Generated by Multiwfn
C       0.71740000      0.97540000      0.91620000
C      -0.70680000      0.98430000      0.91600000
C      -1.15530000     -0.36750000      0.91620000
C       1.14900000     -0.38180000      0.91690000
C      -0.00830000     -1.21170000      0.91680000
C       0.36650000      1.14600000     -2.54060000
H       0.69230000      2.17020000     -2.56920000
C      -0.97450000      0.70110000     -2.54200000
H      -1.84780000      1.32740000     -2.57160000
C      -0.96570000     -0.71190000     -2.54190000
H      -1.83120000     -1.34890000     -2.57170000
C       1.20420000      0.00810000     -2.53980000
H       2.27890000      0.01490000     -2.56760000
C       0.38080000     -1.14010000     -2.54060000
H       0.71920000     -2.16020000     -2.56900000
Fe      0.00060000      0.00040000     -0.79640000
Cl      2.76180000     -0.91690000      0.96840000
Cl      1.72450000      2.34390000      0.96780000
Cl     -1.69710000      2.36510000      0.96680000
Cl     -2.77450000     -0.88270000      0.96850000
Cl     -0.01880000     -2.91080000      0.96920000
