    72
 Generated by Multiwfn
C       1.39740000      0.00360000      0.28480000
C       0.70180000     -1.20840000      0.28480000
C      -0.69560000     -1.21200000      0.28480000
C      -1.39740000     -0.00360000      0.28470000
C      -0.70180000      1.20830000      0.28490000
C       0.69560000      1.21190000      0.28480000
C      -2.87510000     -0.00580000      0.28540000
C      -3.57390000      0.64460000     -0.72550000
C      -3.58230000     -0.65170000      1.29540000
C      -4.95450000      0.63250000     -0.70120000
H      -3.05700000      1.14670000     -1.52810000
C      -4.96510000     -0.65020000      1.29830000
H      -3.04220000     -1.15020000      2.08630000
C      -5.66900000     -0.00610000      0.29570000
H      -5.50090000     -1.15470000      2.08770000
H      -6.74680000      0.00580000      0.27700000
C      -1.43250000     -2.49290000      0.28580000
C      -2.34520000     -2.77300000     -0.72490000
C      -1.22670000     -3.42810000      1.29590000
C      -3.02510000     -3.97460000     -0.70040000
H      -2.52170000     -2.07450000     -1.52770000
C      -1.91940000     -4.62490000      1.29910000
H      -0.52480000     -3.20950000      2.08670000
C      -2.82930000     -4.91250000      0.29670000
H      -1.75030000     -5.34100000      2.08870000
H      -3.37850000     -5.84000000      0.27820000
C       1.44260000     -2.48700000      0.28590000
C       1.22890000     -3.41770000     -0.72470000
C       2.35550000     -2.77620000      1.29610000
C       1.92960000     -4.60730000     -0.70000000
H       0.53560000     -3.22140000     -1.52740000
C       3.04560000     -3.97450000      1.29940000
H       2.51710000     -2.05900000      2.08680000
C       2.83980000     -4.90640000      0.29700000
H       3.75040000     -4.18600000      2.08890000
H       3.36850000     -5.84580000      0.27860000
C       2.87520000      0.00580000      0.28560000
C       3.58230000      0.65170000      1.29560000
C       3.57400000     -0.64460000     -0.72520000
C       4.96510000      0.65030000      1.29860000
H       3.04210000      1.15020000      2.08650000
C       4.95460000     -0.63250000     -0.70090000
H       3.05720000     -1.14670000     -1.52790000
C       5.66900000      0.00610000      0.29610000
H       5.50080000      1.15480000      2.08810000
H       6.74680000     -0.00570000      0.27740000
C       1.43250000      2.49280000      0.28570000
C       1.22680000      3.42810000      1.29580000
C       2.34520000      2.77300000     -0.72510000
C       1.91950000      4.62490000      1.29890000
H       0.52510000      3.20950000      2.08670000
C       3.02500000      3.97460000     -0.70070000
H       2.52150000      2.07440000     -1.52790000
C       2.82930000      4.91260000      0.29630000
H       1.75050000      5.34110000      2.08840000
H       3.37840000      5.84000000      0.27770000
C      -1.44260000      2.48700000      0.28600000
C      -1.22880000      3.41780000     -0.72440000
C      -2.35560000      2.77600000      1.29620000
C      -1.92960000      4.60730000     -0.69960000
H      -0.53550000      3.22170000     -1.52710000
C      -3.04580000      3.97420000      1.29960000
H      -2.51720000      2.05870000      2.08680000
C      -2.84000000      4.90630000      0.29740000
H      -3.75060000      4.18560000      2.08910000
H      -3.36870000      5.84560000      0.27910000
F       5.62500000     -1.26740000     -1.68320000
F       1.71500000     -5.50560000     -1.68210000
F      -3.91030000     -4.23790000     -1.68260000
F      -5.62480000      1.26740000     -1.68360000
F      -1.71500000      5.50580000     -1.68160000
F       3.91000000      4.23780000     -1.68310000
