   112
 Generated by Multiwfn
C      -3.71070000      3.59680000     -2.47280000
C      -3.11500000      4.00830000     -1.11290000
C      -3.95930000      4.04570000     -0.01500000
C      -3.31690000      4.38800000      1.29370000
C      -2.82100000      5.96910000      1.01160000
C      -1.81380000      5.86880000     -0.25370000
C      -5.12570000     -0.65860000     -2.47280000
C      -5.07600000      0.06380000     -1.11290000
C      -5.63160000     -0.57300000     -0.01500000
C      -5.49870000      0.14260000      1.29370000
C      -6.42570000      1.51610000      1.01160000
C      -5.71930000      2.24100000     -0.25370000
C      -2.68090000     -4.41810000     -2.47280000
C      -3.21470000     -3.92880000     -1.11290000
C      -3.06330000     -4.76030000     -0.01500000
C      -3.53990000     -4.21020000      1.29370000
C      -5.19170000     -4.07860000      1.01160000
C      -5.31800000     -3.07430000     -0.25370000
C       0.49850000      5.14380000     -2.47280000
C       1.19170000      4.93460000     -1.11290000
C       0.69450000      5.61800000     -0.01500000
C       1.36260000      5.32910000      1.29370000
C       2.90790000      5.92730000      1.01160000
C       3.45750000      5.07720000     -0.25370000
C       1.78270000     -4.85060000     -2.47280000
C       1.06740000     -4.96290000     -1.11290000
C       1.81180000     -5.36290000     -0.01500000
C       1.08460000     -5.39260000      1.29370000
C      -0.04820000     -6.60200000      1.01160000
C      -0.91220000     -6.07460000     -0.25370000
C       4.90390000     -1.63060000     -2.47280000
C       4.54570000     -2.25980000     -1.11290000
C       5.32260000     -1.92720000     -0.01500000
C       4.89230000     -2.51430000      1.29370000
C       5.13160000     -4.15400000      1.01160000
C       4.18060000     -4.50060000     -0.25370000
C       4.33230000      2.81730000     -2.47280000
C       4.60100000      2.14500000     -1.11290000
C       4.82530000      2.95970000     -0.01500000
C       5.01600000      2.25730000      1.29370000
C       6.44720000      1.42210000      1.01160000
C       6.12520000      0.46240000     -0.25370000
O      -4.54770000      4.57890000     -2.83490000
O       0.70460000      5.86730000      2.33760000
O      -2.13010000      6.38950000      2.14870000
O      -4.14790000      4.20910000      2.33760000
O      -6.32360000      2.31840000      2.14870000
O      -5.87700000     -0.61870000      2.33760000
O      -5.75530000     -3.49850000      2.14870000
O       3.66740000      5.64920000      2.14870000
O       3.44860000      3.48440000      0.17860000
O      -0.57400000      4.86870000      0.17860000
O      -4.16440000      2.58680000      0.17860000
O      -4.61890000     -1.64300000      0.17860000
O       2.65630000      5.21030000     -1.21130000
O      -2.41740000      5.32540000     -1.21130000
O      -5.67080000      1.43030000     -1.21130000
O      -4.65390000     -3.54180000     -1.21130000
O       0.74450000      6.41040000     -2.83490000
O      -6.41540000     -0.70070000     -2.83490000
O      -3.45210000     -5.45260000     -2.83490000
O      -3.18050000     -4.98050000      2.33760000
O      -0.85310000     -6.68100000      2.14870000
O       1.91090000     -5.59200000      2.33760000
O       4.69150000     -4.83250000      2.14870000
O       5.56340000     -1.99250000      2.33760000
O       6.70330000      0.65490000      2.14870000
O       5.02650000      3.10730000      2.33760000
O      -1.59530000     -4.63560000      0.17860000
O       2.62960000     -4.13750000      0.17860000
O       4.87440000     -0.52380000      0.17860000
O      -0.13260000     -5.84690000     -1.21130000
O       4.48860000     -3.74910000     -1.21130000
O       5.72980000      1.17180000     -1.21130000
O       5.47600000      3.41480000     -2.83490000
O       2.11060000     -6.09860000     -2.83490000
O       6.08400000     -2.15230000     -2.83490000
H      -3.49800000      2.70260000     -3.02060000
H      -2.50150000      3.75830000      1.58270000
H      -3.62110000      6.65190000      0.81500000
H      -4.29400000     -1.04980000     -3.02060000
H      -4.49800000      0.38750000      1.58270000
H      -7.45840000      1.31630000      0.81500000
H      -1.85650000     -4.01170000     -3.02060000
H      -3.10740000     -3.27510000      1.58270000
H      -5.67930000     -5.01050000      0.81500000
H      -0.06800000      4.41990000     -3.02060000
H       1.37870000      4.29900000      1.58270000
H       2.94290000      6.97850000      0.81500000
H       1.97900000     -3.95270000     -3.02060000
H       0.62310000     -4.47140000      1.58270000
H       0.37640000     -7.56430000      0.81500000
H       4.32430000     -0.91720000     -3.02060000
H       3.88440000     -2.30070000      1.58270000
H       6.14870000     -4.42200000      0.81500000
H       3.41330000      2.80890000     -3.02060000
H       4.22070000      1.60250000      1.58270000
H       7.29090000      2.05020000      0.81500000
H       1.18250000      5.67760000      3.14830000
H      -1.67120000      7.21110000      1.95880000
H      -3.70170000      4.46440000      3.14830000
H      -6.67990000      3.18950000      1.95880000
H      -5.79840000     -0.11050000      3.14830000
H      -6.65850000     -3.23400000      1.95880000
H       4.59590000      5.80270000      1.95880000
H      -3.52880000     -4.60230000      3.14830000
H      -1.62310000     -7.22210000      1.95880000
H       1.39800000     -5.62840000      3.14830000
H       4.63450000     -5.77190000      1.95880000
H       5.27210000     -2.41620000      3.14830000
H       7.40220000      0.02470000      1.95880000
H       5.17620000      2.61540000      3.14830000
