    16
 Generated by Multiwfn
C       0.58780000     -0.46970000     -0.02790000
H       0.28240000     -1.40920000     -0.49700000
C      -0.58780000      0.46970000      0.02790000
H      -0.28240000      1.40920000      0.49700000
O      -1.02100000      0.63460000     -1.35810000
H      -1.70040000      1.36140000     -1.35870000
O       1.02100000     -0.63460000      1.35810000
H       1.70040000     -1.36140000      1.35870000
C      -1.74920000     -0.14380000      0.78700000
O      -1.89480000     -1.29680000      1.15770000
O      -2.73500000      0.82670000      0.90030000
H      -3.54240000      0.41550000      1.31730000
C       1.74920000      0.14380000     -0.78700000
O       1.89480000      1.29680000     -1.15770000
O       2.73500000     -0.82670000     -0.90030000
H       3.54240000     -0.41550000     -1.31730000
