    19
 Generated by Multiwfn
As      0.00000000      0.00000000      0.00000000
N      -0.29030000     -1.38170000      1.28630000
N       0.29030000      1.38170000     -1.28630000
N      -1.86540000      0.01010000     -0.41010000
N       1.86540000     -0.01010000      0.41010000
N      -0.28980000      1.31860000      1.35100000
N       0.28980000     -1.31860000     -1.35100000
N      -1.46410000      1.76430000      1.56470000
N       2.31990000     -0.81170000      1.28990000
N       1.46410000     -1.76430000     -1.56470000
N      -2.31990000      0.81170000     -1.28990000
N       1.46470000      1.83670000     -1.47840000
N      -1.46470000     -1.83670000      1.47840000
N      -2.75530000     -2.33660000      1.68950000
N      -2.75450000      2.25400000      1.79950000
N       2.75530000      2.33660000     -1.68950000
N       2.75450000     -2.25400000     -1.79950000
N       2.81920000     -1.69260000      2.25680000
N      -2.81920000      1.69260000     -2.25680000
