     8
 Generated by Multiwfn
C       0.52040000      0.62710000     -0.45810000
H       0.26610000     -0.12300000     -1.17750000
C      -0.76720000      1.26660000      0.09370000
H      -0.51280000      2.01660000      0.81340000
F       1.27810000      1.57680000     -1.04680000
F      -1.52490000      0.31690000      0.68220000
Cl      1.42260000     -0.10830000      0.86200000
Cl     -1.66920000      2.00230000     -1.22640000
