    18
 Generated by Multiwfn
C       4.01450000     -1.32000000      0.23250000
C       2.82560000     -0.63360000      0.23250000
C       1.58770000     -1.33360000      0.23250000
C       1.59750000     -2.75240000      0.23280000
C       2.84320000     -3.43770000      0.23300000
C       4.02370000     -2.73600000      0.23270000
H       0.34490000      0.45200000      0.23220000
H       2.80860000      0.46660000      0.23220000
C       0.34170000     -0.64830000      0.23220000
C       0.35920000     -3.45160000      0.23290000
H       2.83980000     -4.53790000      0.23310000
H       4.98920000     -3.26290000      0.23280000
C      -0.82970000     -2.76530000      0.23270000
C      -0.83880000     -1.34910000      0.23220000
H       0.37580000     -4.55190000      0.23320000
H      -1.78850000     -3.30450000      0.23250000
H      -1.80450000     -0.82220000      0.23200000
Cl      5.54840000     -0.45730000      0.23230000
