13

 C         -0.0001   -0.9410    0.0261  
 C          1.1967   -0.2156   -0.0155  
 C          1.2052    1.1806   -0.0148  
 C          0.0002    1.8846   -0.0062  
 C         -1.2050    1.1808   -0.0146  
 C         -1.1968   -0.2154   -0.0153  
 O         -0.0002   -2.3024   -0.0154  
 H          2.1555   -0.7589   -0.0450  
 H          2.1624    1.7266   -0.0334  
 H          0.0002    2.9864   -0.0133  
 H         -2.1622    1.7270   -0.0330  
 H         -2.1557   -0.7585   -0.0447  
 H         -0.0001   -2.6079    0.9055  
