    32
 Generated by Multiwfn
C       1.25670000      1.38080000      0.32290000
C       1.29640000      2.67100000      0.85860000
C       0.13180000      3.28580000      1.32060000
C      -1.08490000      2.60460000      1.26170000
C      -1.14910000      1.30330000      0.75590000
C       0.02770000      0.68980000      0.27720000
H       2.24290000      3.19920000      0.90110000
H       0.17200000      4.29060000      1.72450000
H      -1.99120000      3.07910000      1.62220000
C      -0.02770000     -0.68980000     -0.27720000
C      -1.04650000     -1.04180000     -1.18730000
C       0.93890000     -1.64230000      0.10850000
C      -1.09430000     -2.34510000     -1.68980000
C       0.88280000     -2.93060000     -0.43060000
C      -0.13180000     -3.28580000     -1.32060000
H      -1.88250000     -2.61790000     -2.38330000
H       1.63080000     -3.66030000     -0.14000000
H      -0.17200000     -4.29060000     -1.72450000
C      -2.05310000      0.00810000     -1.61920000
H      -1.50670000      0.90930000     -1.92610000
H      -2.63870000     -0.35530000     -2.46690000
C      -2.45350000      0.52850000      0.73390000
H      -3.21450000      1.05220000      1.31700000
H      -2.28020000     -0.45850000      1.18210000
C       2.00320000     -1.25480000      1.11810000
H       1.51190000     -0.78070000      1.97770000
H       2.53850000     -2.14240000      1.46290000
C       2.50340000      0.71820000     -0.23280000
H       3.31470000      1.44550000     -0.31310000
H       2.27500000      0.32990000     -1.23380000
O       3.04890000     -0.36300000      0.59900000
O      -3.04890000      0.36300000     -0.59900000
