    22
 Generated by Multiwfn
C      -3.04020000     -4.30980000      1.74320000
C      -4.43760000     -4.29370000      1.76730000
C      -5.13140000     -3.20470000      1.24590000
C      -4.42950000     -2.13240000      0.70150000
C      -3.03220000     -2.14960000      0.67930000
C      -2.31210000     -3.23830000      1.19920000
H      -2.51730000     -5.16510000      2.16630000
H      -4.98170000     -5.13120000      2.19610000
H      -6.21790000     -3.19190000      1.26390000
H      -4.96730000     -1.28210000      0.29060000
H      -2.50330000     -1.30680000      0.23870000
C      -0.84010000     -3.25590000      1.17490000
C      -0.09400000     -2.19760000      1.72040000
C       1.30330000     -2.21370000      1.69830000
C       1.97910000     -3.28940000      1.12820000
C       1.25940000     -4.34860000      0.58130000
C      -0.13790000     -4.33130000      0.60550000
H       3.06570000     -3.30240000      1.11030000
H       1.78320000     -5.18850000      0.13260000
H      -0.60250000     -1.35290000      2.18110000
H       1.86140000     -1.38660000      2.12910000
H      -0.68130000     -5.16350000      0.16220000
