    13
 Generated by Multiwfn
C       1.61660000      0.09800000     -0.21450000
C       2.88110000     -0.01170000      0.50140000
C       2.82330000      0.06050000     -1.03080000
H       3.13830000     -0.96320000      0.94990000
H       3.25010000      0.85730000      1.03150000
H       3.04250000     -0.84360000     -1.58470000
H       3.15430000      0.97690000     -1.50320000
C       0.42810000      0.93690000     -0.13000000
C       0.33410000     -0.59360000     -0.19870000
H       0.04360000     -1.11970000      0.70200000
H      -0.02520000     -1.03380000     -1.12040000
H       0.13030000      1.49800000     -1.00690000
H       0.19920000      1.41210000      0.81550000
