    22
 Generated by Multiwfn
C      -3.03250000     -4.09120000      2.05240000
C      -4.42990000     -4.07470000      2.07660000
C      -5.13140000     -3.20460000      1.24590000
C      -4.43720000     -2.35130000      0.39230000
C      -3.03990000     -2.36820000      0.37020000
C      -2.31210000     -3.23830000      1.19920000
H      -2.50350000     -4.77040000      2.71780000
H      -4.96790000     -4.74010000      2.74670000
H      -6.21790000     -3.19180000      1.26400000
H      -4.98110000     -1.67310000     -0.25990000
H      -2.51710000     -1.70150000     -0.31280000
C      -0.84010000     -3.25590000      1.17490000
C      -0.09170000     -2.42360000      2.02430000
C       1.30560000     -2.44000000      2.00230000
C       1.97910000     -3.28940000      1.12830000
C       1.25710000     -4.12220000      0.27740000
C      -0.14020000     -4.10530000      0.30170000
H       3.06570000     -3.30240000      1.11040000
H       1.77910000     -4.78420000     -0.40850000
H      -0.59840000     -1.76090000      2.72300000
H       1.86550000     -1.79080000      2.67030000
H      -0.68540000     -4.75560000     -0.37970000
