8
ATOM
 N          2.0000    0.0000    0.0000   
 N          0.0000    2.0000    0.0000   
 N         -2.0000    0.0000    0.0000   
 N          0.0000   -2.0000    0.0000   
 S          3.0000   -3.0000    3.0000   
 S         -3.0000    3.0000    3.0000   
 S          3.0000    3.0000   -3.0000   
 S         -3.0000   -3.0000   -3.0000   
