    13
 Generated by Multiwfn
C       0.50730000      0.55630000     -0.56270000
C       1.02530000     -0.41300000      0.51600000
H       1.08480000      1.18950000     -1.20330000
C      -0.56300000      0.97930000      0.46060000
C      -0.46240000     -0.56630000     -0.97660000
H      -0.27440000      1.57010000      1.30480000
C      -0.50730000     -0.55630000      0.56270000
H      -1.46060000      1.44790000      0.11460000
H       1.53970000     -0.02020000      1.36800000
H       1.62000000     -1.25260000      0.22210000
H      -0.07910000     -1.42770000     -1.48260000
H      -1.34560000     -0.31750000     -1.52680000
H      -1.08480000     -1.18950000      1.20330000
