    21
 Generated by Multiwfn
C       0.14590000     -1.19630000     -1.68160000
H       0.29130000     -2.26760000     -1.65300000
C      -1.11130000     -0.51930000     -1.66630000
H      -2.08510000     -0.98840000     -1.62450000
C      -0.85610000      0.88560000     -1.66250000
H      -1.60260000      1.66700000     -1.61730000
C       1.17820000     -0.20960000     -1.68720000
H       2.24200000     -0.40300000     -1.66370000
C       0.55890000      1.07700000     -1.67550000
H       1.07170000      2.02870000     -1.64140000
C      -0.13700000     -1.21240000      1.67000000
H      -0.27460000     -2.28450000      1.63130000
C      -1.17620000     -0.23320000      1.68540000
H      -2.23880000     -0.43380000      1.66050000
C      -0.56610000      1.05790000      1.68580000
H      -1.08560000      2.00620000      1.66130000
C       1.11550000     -0.52650000      1.66100000
H       2.09240000     -0.98820000      1.61420000
C       0.85030000      0.87650000      1.67080000
H       1.59120000      1.66350000      1.63260000
Fe     -0.00060000      0.00000000      0.00000000
