15

 C                  9.34380000  -12.70570000    3.00000000
 C                  9.34380000  -13.79310000    3.00000000
 C                 10.19500000  -14.47120000    3.00000000
 C                 11.25560000  -14.23110000    3.00000000
 C                 11.72800000  -13.25330000    3.00000000
 C                 11.25560000  -12.27340000    3.00000000
 C                 10.19500000  -12.02940000    3.00000000
 C                  9.26730000  -12.92100000    0.00000000
 C                  9.45610000  -13.99190000    0.00000000
 C                 10.41220000  -14.51180000    0.00000000
 C                 11.41490000  -14.09120000    0.00000000
 C                 11.71040000  -13.04620000    0.00000000
 C                 11.07500000  -12.16330000    0.00000000
 C                  9.98810000  -12.10710000    0.00000000
 Fe                10.47434286  -13.25640714    1.50000000
