15

C	13.900950	-19.381500	4.500000
C	14.184150	-20.987850	4.500000
C	15.618300	-21.767700	4.500000
C	17.122350	-21.136800	4.500000
C	17.565600	-19.569300	4.500000
C	16.612500	-18.244950	4.500000
C	14.982150	-18.160650	4.500000
C	13.900950	-19.381500	0.000000
C	14.184150	-20.987850	0.000000
C	15.618300	-21.767700	0.000000
C	17.122350	-21.136800	0.000000
C	17.565600	-19.569300	0.000000
C	16.612500	-18.244950	0.000000
C	14.982150	-18.160650	0.000000
Fe	15.711514	-19.884611	2.250000

