16

C        6.6516   -8.4226    3.0000 
C        6.6516   -9.5085    3.0000 
C        7.4195  -10.2764    3.0000 
C        8.5074  -10.2764    3.0000 
C        9.2772   -9.5085    3.0000 
C        9.2772   -8.4226    3.0000 
C        8.5074   -7.6527    3.0000 
C        7.4195   -7.6527    3.0000 
C        6.7657   -8.2029    0.0000 
C        6.5771   -9.2723    0.0000 
C        7.2000  -10.1619    0.0000 
C        8.2714  -10.3508    0.0000 
C        9.1628   -9.7282    0.0000 
C        9.3514   -8.6588    0.0000 
C        8.7270   -7.7670    0.0000 
C        7.6556   -7.5780    0.0000 
