16

 C                  0.00000000   -1.41926952    1.99986690
 C                  1.00357510   -1.00357510    1.99986690
 C                  1.41926952    0.00000000    1.99986690
 C                  1.00357510    1.00357510    1.99986690
 C                 -0.00000000    1.41926952    1.99986690
 C                 -1.00357510    1.00357510    1.99986690
 C                 -1.41926952   -0.00000000    1.99986690
 C                 -1.00357510   -1.00357510    1.99986690
 C                 -0.54313093   -1.31123406   -1.99986690
 C                  0.54313093   -1.31123406   -1.99986690
 C                  1.31123406   -0.54313093   -1.99986690
 C                  1.31123406    0.54313093   -1.99986690
 C                  0.54313093    1.31123406   -1.99986690
 C                 -0.54313093    1.31123406   -1.99986690
 C                 -1.31123406    0.54313093   -1.99986690
 C                 -1.31123406   -0.54313093   -1.99986690
