    32
 Generated by Multiwfn
C       1.45840000     -1.45840000      0.00000000
C       0.00000000     -2.06250000      0.00000000
C       2.06250000      0.00000000      0.00000000
C       1.45840000      1.45840000      0.00000000
C      -1.45840000     -1.45840000      0.00000000
C       0.00000000      2.06250000      0.00000000
C      -2.06250000      0.00000000      0.00000000
C      -1.45840000      1.45840000      0.00000000
S      -1.62090000     -3.91310000      0.00000000
C      -2.52230000     -2.52230000      0.00000000
C       0.00000000     -3.56710000      0.00000000
C       2.52230000      2.52230000      0.00000000
S       1.62090000      3.91310000      0.00000000
C       0.00000000      3.56710000      0.00000000
S      -3.91310000      1.62090000      0.00000000
C      -2.52230000      2.52230000      0.00000000
C      -3.56710000      0.00000000      0.00000000
S       3.91310000     -1.62090000      0.00000000
C       3.56710000      0.00000000      0.00000000
C       2.52230000     -2.52230000      0.00000000
S      -1.62090000      3.91310000      0.00000000
S       3.91310000      1.62090000      0.00000000
S       1.62090000     -3.91310000      0.00000000
S      -3.91310000     -1.62090000      0.00000000
H      -0.09150000      0.99580000     -0.90000000
H       0.63940000      0.76880000      0.90000000
H       0.99580000      0.09150000     -0.90000000
H       0.76880000     -0.63940000      0.90000000
H       0.09150000     -0.99580000     -0.90000000
H      -0.63940000     -0.76880000      0.90000000
H      -0.99580000     -0.09150000     -0.90000000
H      -0.76880000      0.63940000      0.90000000
